Circuit: * C:\Users\hi\Desktop\Clock-Multiplier\Simulation\Clock-Multiplier.asc

Limiting rise time of source v2 to 2e-007
Limiting fall time of source v2 to 2e-007
WARNING: Node N029 is floating.
WARNING: Node N039 is floating.
WARNING: Node N052 is floating.
WARNING: Node N062 is floating.
WARNING: Node N053 is floating.
WARNING: Node N063 is floating.
WARNING: Node N054 is floating.
WARNING: Node N064 is floating.
WARNING: Node N055 is floating.
WARNING: Node N065 is floating.
WARNING: Node N056 is floating.
WARNING: Node N066 is floating.
WARNING: Node N042 is floating.
WARNING: Node N043 is floating.
WARNING: Node N044 is floating.
WARNING: Node N045 is floating.
WARNING: Node N046 is floating.
WARNING: Node N073 is floating.
WARNING: Node N074 is floating.
WARNING: Node N075 is floating.
WARNING: Node N076 is floating.
WARNING: Node N041 is floating.
WARNING: Node N061 is floating.
WARNING: Node N072 is floating.
WARNING: Node N001 is floating.
WARNING: Node N010 is floating.
WARNING: Node N016 is floating.
WARNING: Node N017 is floating.
WARNING: Node N012 is floating.
WARNING: Node N002 is floating.
WARNING: Node N018 is floating.
WARNING: Node N013 is floating.
WARNING: Node N003 is floating.
WARNING: Node N004 is floating.
WARNING: Node N006 is floating.
WARNING: Node N015 is floating.
WARNING: Node N020 is floating.
WARNING: Node N027 is floating.
WARNING: Node N036 is floating.
WARNING: Node N037 is floating.
WARNING: Node N031 is floating.
WARNING: Node N021 is floating.
WARNING: Node N038 is floating.
WARNING: Node N032 is floating.
WARNING: Node N022 is floating.
WARNING: Node N023 is floating.
WARNING: Node N025 is floating.
WARNING: Node N033 is floating.
WARNING: Node N007 is floating.
WARNING: Node N008 is floating.
WARNING: Node N014 is floating.
WARNING: Node N019 is floating.

WARNING: Less than two connections to node N029.  This node is used by M21.
WARNING: Less than two connections to node N039.  This node is used by M22.
WARNING: Less than two connections to node N052.  This node is used by M23.
WARNING: Less than two connections to node N062.  This node is used by M24.
WARNING: Less than two connections to node N053.  This node is used by M25.
WARNING: Less than two connections to node N063.  This node is used by M26.
WARNING: Less than two connections to node N054.  This node is used by M27.
WARNING: Less than two connections to node N064.  This node is used by M28.
WARNING: Less than two connections to node N055.  This node is used by M29.
WARNING: Less than two connections to node N065.  This node is used by M30.
WARNING: Less than two connections to node N056.  This node is used by M31.
WARNING: Less than two connections to node N066.  This node is used by M32.
WARNING: Less than two connections to node N042.  This node is used by M33.
WARNING: Less than two connections to node N043.  This node is used by M34.
WARNING: Less than two connections to node N044.  This node is used by M35.
WARNING: Less than two connections to node N045.  This node is used by M36.
WARNING: Less than two connections to node N046.  This node is used by M37.
WARNING: Less than two connections to node N073.  This node is used by M38.
WARNING: Less than two connections to node N074.  This node is used by M39.
WARNING: Less than two connections to node N075.  This node is used by M40.
WARNING: Less than two connections to node N076.  This node is used by M41.
WARNING: Less than two connections to node N041.  This node is used by M42.
WARNING: Less than two connections to node N061.  This node is used by M43.
WARNING: Less than two connections to node N072.  This node is used by M44.
WARNING: Less than two connections to node N001.  This node is used by M1.
WARNING: Less than two connections to node N010.  This node is used by M2.
WARNING: Less than two connections to node N016.  This node is used by M3.
WARNING: Less than two connections to node N017.  This node is used by M4.
WARNING: Less than two connections to node N012.  This node is used by M5.
WARNING: Less than two connections to node N002.  This node is used by M6.
WARNING: Less than two connections to node N018.  This node is used by M7.
WARNING: Less than two connections to node N013.  This node is used by M8.
WARNING: Less than two connections to node N003.  This node is used by M9.
WARNING: Less than two connections to node N004.  This node is used by M10.
WARNING: Less than two connections to node N006.  This node is used by M11.
WARNING: Less than two connections to node N015.  This node is used by M12.
WARNING: Less than two connections to node N020.  This node is used by M13.
WARNING: Less than two connections to node N027.  This node is used by M14.
WARNING: Less than two connections to node N036.  This node is used by M15.
WARNING: Less than two connections to node N037.  This node is used by M16.
WARNING: Less than two connections to node N031.  This node is used by M17.
WARNING: Less than two connections to node N021.  This node is used by M18.
WARNING: Less than two connections to node N038.  This node is used by M19.
WARNING: Less than two connections to node N032.  This node is used by M20.
WARNING: Less than two connections to node N022.  This node is used by M45.
WARNING: Less than two connections to node N023.  This node is used by M46.
WARNING: Less than two connections to node N025.  This node is used by M47.
WARNING: Less than two connections to node N033.  This node is used by M48.
WARNING: Less than two connections to node N007.  This node is used by M49.
WARNING: Less than two connections to node N008.  This node is used by M50.
WARNING: Less than two connections to node N014.  This node is used by M51.
WARNING: Less than two connections to node N019.  This node is used by M52.
Warning: Pd = 0 is less than W.
Warning: Ps = 0 is less than W.
Warning: Pd = 0 is less than W.
Warning: Ps = 0 is less than W.
Early termination of direct N-R iteration.
Direct Newton iteration failed to find .op point.  (Use ".option noopiter" to skip.)
Starting Gmin stepping
Gmin = 10
Gmin = 1.07374
Gmin = 0.115292
Gmin = 0.0123794
Gmin = 0.00132923
Gmin = 0.000142725
Gmin = 1.5325e-005
Gmin = 1.6455e-006
Gmin = 1.76685e-007
Gmin = 1.89714e-008
vernier = 0.5
vernier = 0.25
vernier = 0.125
vernier = 0.0625
vernier = 0.03125
Gmin = 1.83899e-008
vernier = 0.0416667
vernier = 0.0555555
Gmin = 1.64523e-008
vernier = 0.074074
vernier = 0.0987653
Gmin = 1.3799e-008
vernier = 0.131687
Gmin = 1.03883e-008
vernier = 0.175583
vernier = 0.23411
Gmin = 6.55284e-009
vernier = 0.312147
vernier = 0.416196
Gmin = 3.18811e-009
vernier = 0.554928
Gmin = 1.01504e-009
vernier = 0.739903
vernier = 0.986537
Gmin = 1.66184e-010
vernier = 1
Gmin = 1.79888e-011
Gmin = 1.93153e-012
Gmin = 2.07396e-013
Gmin = 0
Gmin stepping succeeded in finding the operating point.

Heightened Def Con from 8.01043e-005 to 8.01043e-005

Date: Fri Jun 12 17:02:05 2020
Total elapsed time: 8.340 seconds.

tnom = 27
temp = 27
method = modified trap
totiter = 61312
traniter = 60219
tranpoints = 19423
accept = 13444
rejected = 5980
matrix size = 100
fillins = 1474
solver = Normal
Thread vector: 94.4/24.3[4] 18.9/7.5[4] 7.6/4.1[4] 0.8/5.6[1]  2592/500
Matrix Compiler1: 347.69 KB object code size  135.1/62.8/[24.9]
Matrix Compiler2: 36.98 KB object code size  8.4/5.5/[1.1]

